/*--------------------------------*- C++ -*----------------------------------*\
  =========                 |
  \\      /  F ield         | OpenFOAM: The Open Source CFD Toolbox
   \\    /   O peration     | Website:  https://openfoam.org
    \\  /    A nd           | Version:  11
     \\/     M anipulation  |
\*---------------------------------------------------------------------------*/
FoamFile
{
    format      ascii;
    class       extendedFeatureEdgeMesh;
    location    "constant/extendedFeatureEdgeMesh";
    object      car.extendedFeatureEdgeMesh;
}
// * * * * * * * * * * * * * * * * * * * * * * * * * * * * * * * * * * * * * //

// points

911
(
(966.754 1086.97 0.0486175)
(966.754 -1087.21 0.0486175)
(-968.862 -1087.21 0.0486175)
(-968.862 1086.97 0.0486175)
(0.671708 0.688794 2.16663)
(0.688411 0.672103 2.16663)
(0.654601 0.70507 2.16663)
(0.6371 0.720922 2.16663)
(0.619216 0.736341 2.16663)
(0.60096 0.751317 2.16663)
(0.582341 0.76584 2.16663)
(0.665638 0.682569 2.16367)
(0.68219 0.666029 2.16367)
(0.648686 0.698699 2.16367)
(0.631343 0.714407 2.16367)
(0.61362 0.729686 2.16367)
(0.595529 0.744527 2.16367)
(0.577079 0.758918 2.16367)
(0.563372 0.779901 2.16663)
(0.558281 0.772853 2.16367)
(0.69833 0.649087 2.16367)
(0.704698 0.655007 2.16663)
(0.793179 0.544516 2.16663)
(0.806304 0.524887 2.16663)
(0.779576 0.563817 2.16663)
(0.765504 0.582778 2.16663)
(0.750972 0.601389 2.16663)
(0.735987 0.619639 2.16663)
(0.72056 0.637515 2.16663)
(0.786011 0.539595 2.16367)
(0.799018 0.520143 2.16367)
(0.772531 0.558721 2.16367)
(0.758586 0.577511 2.16367)
(0.744185 0.595955 2.16367)
(0.729336 0.614039 2.16367)
(0.714048 0.631754 2.16367)
(0.811542 0.500378 2.16367)
(0.818943 0.504942 2.16663)
(0.884168 0.379312 2.16663)
(0.893212 0.357499 2.16663)
(0.874592 0.400895 2.16663)
(0.86449 0.422238 2.16663)
(0.853867 0.443327 2.16663)
(0.842731 0.464149 2.16663)
(0.831088 0.484692 2.16663)
(0.876178 0.375884 2.16367)
(0.88514 0.354269 2.16367)
(0.866688 0.397273 2.16367)
(0.856677 0.418422 2.16367)
(0.846151 0.439321 2.16367)
(0.835115 0.459954 2.16367)
(0.823577 0.480311 2.16367)
(0.893568 0.33244 2.16367)
(0.901717 0.335472 2.16663)
(0.941179 0.199531 2.16663)
(0.945794 0.176373 2.16663)
(0.935998 0.222568 2.16663)
(0.930253 0.245472 2.16663)
(0.923949 0.268228 2.16663)
(0.91709 0.290822 2.16663)
(0.909677 0.313241 2.16663)
(0.932674 0.197727 2.16367)
(0.937247 0.174779 2.16367)
(0.927539 0.220557 2.16367)
(0.921847 0.243253 2.16367)
(0.9156 0.265804 2.16367)
(0.908802 0.288194 2.16367)
(0.901457 0.31041 2.16367)
(0.941254 0.151726 2.16367)
(0.949838 0.153109 2.16663)
(0.962021 0.0120816 2.16663)
(0.962029 -0.0115311 2.16663)
(0.961434 0.0356872 2.16663)
(0.960268 0.0592713 2.16663)
(0.958525 0.0828198 2.16663)
(0.956204 0.106319 2.16663)
(0.953309 0.129753 2.16663)
(0.953327 0.0119725 2.16367)
(0.953335 -0.011427 2.16367)
(0.952745 0.0353647 2.16367)
(0.95159 0.0587357 2.16367)
(0.949862 0.0820714 2.16367)
(0.947563 0.105358 2.16367)
(0.944694 0.128581 2.16367)
(0.952768 -0.0348195 2.16367)
(0.961457 -0.0351369 2.16663)
(0.945893 -0.175831 2.16663)
(0.941294 -0.198992 2.16663)
(0.949922 -0.152565 2.16663)
(0.95338 -0.129207 2.16663)
(0.956264 -0.10577 2.16663)
(0.958573 -0.0822706 2.16663)
(0.960305 -0.0587215 2.16663)
(0.937345 -0.174242 2.16367)
(0.932788 -0.197194 2.16367)
(0.941338 -0.151186 2.16367)
(0.944764 -0.128039 2.16367)
(0.947622 -0.104814 2.16367)
(0.94991 -0.0815271 2.16367)
(0.951626 -0.0581907 2.16367)
(0.927668 -0.220026 2.16367)
(0.936128 -0.222033 2.16663)
(0.893415 -0.356987 2.16663)
(0.884386 -0.378806 2.16663)
(0.901906 -0.334954 2.16663)
(0.909854 -0.312719 2.16663)
(0.917255 -0.290296 2.16663)
(0.924104 -0.267698 2.16663)
(0.930397 -0.244939 2.16663)
(0.885341 -0.353761 2.16367)
(0.876394 -0.375382 2.16367)
(0.893755 -0.331926 2.16367)
(0.901631 -0.309892 2.16367)
(0.908965 -0.287672 2.16367)
(0.915753 -0.265279 2.16367)
(0.921988 -0.242725 2.16367)
(0.866918 -0.396777 2.16367)
(0.874824 -0.400395 2.16663)
(0.806603 -0.524424 2.16663)
(0.793491 -0.544062 2.16663)
(0.819229 -0.504471 2.16663)
(0.831363 -0.484213 2.16663)
(0.842996 -0.463665 2.16663)
(0.854122 -0.442838 2.16663)
(0.864734 -0.421744 2.16663)
(0.799314 -0.519685 2.16367)
(0.78632 -0.539145 2.16367)
(0.811826 -0.499911 2.16367)
(0.823849 -0.479837 2.16367)
(0.835377 -0.459474 2.16367)
(0.846403 -0.438835 2.16367)
(0.856919 -0.417932 2.16367)
(0.772853 -0.55828 2.16367)
(0.779901 -0.563372 2.16663)
(0.688794 -0.671708 2.16663)
(0.672103 -0.688411 2.16663)
(0.70507 -0.654601 2.16663)
(0.720923 -0.6371 2.16663)
(0.736341 -0.619216 2.16663)
(0.751317 -0.60096 2.16663)
(0.76584 -0.582341 2.16663)
(0.682569 -0.665638 2.16367)
(0.666029 -0.68219 2.16367)
(0.698699 -0.648685 2.16367)
(0.714407 -0.631343 2.16367)
(0.729686 -0.61362 2.16367)
(0.744527 -0.595529 2.16367)
(0.758919 -0.577078 2.16367)
(0.649088 -0.69833 2.16367)
(0.655007 -0.704698 2.16663)
(0.544516 -0.793179 2.16663)
(0.524887 -0.806304 2.16663)
(0.563817 -0.779576 2.16663)
(0.582778 -0.765504 2.16663)
(0.60139 -0.750972 2.16663)
(0.619639 -0.735987 2.16663)
(0.637515 -0.72056 2.16663)
(0.539595 -0.786011 2.16367)
(0.520144 -0.799018 2.16367)
(0.558721 -0.772531 2.16367)
(0.577512 -0.758586 2.16367)
(0.595955 -0.744185 2.16367)
(0.614039 -0.729336 2.16367)
(0.631754 -0.714048 2.16367)
(0.500378 -0.811542 2.16367)
(0.504942 -0.818943 2.16663)
(0.379312 -0.884168 2.16663)
(0.357499 -0.893212 2.16663)
(0.400896 -0.874592 2.16663)
(0.422238 -0.86449 2.16663)
(0.443327 -0.853867 2.16663)
(0.464149 -0.842731 2.16663)
(0.484692 -0.831088 2.16663)
(0.375884 -0.876178 2.16367)
(0.354269 -0.88514 2.16367)
(0.397273 -0.866688 2.16367)
(0.418423 -0.856677 2.16367)
(0.439321 -0.846151 2.16367)
(0.459954 -0.835115 2.16367)
(0.480311 -0.823577 2.16367)
(0.33244 -0.893568 2.16367)
(0.335472 -0.901717 2.16663)
(0.199531 -0.941179 2.16663)
(0.176373 -0.945794 2.16663)
(0.222568 -0.935998 2.16663)
(0.245472 -0.930253 2.16663)
(0.268228 -0.923949 2.16663)
(0.290822 -0.91709 2.16663)
(0.313241 -0.909678 2.16663)
(0.197727 -0.932674 2.16367)
(0.174779 -0.937247 2.16367)
(0.220557 -0.927539 2.16367)
(0.243253 -0.921847 2.16367)
(0.265804 -0.915599 2.16367)
(0.288194 -0.908802 2.16367)
(0.31041 -0.901457 2.16367)
(0.151726 -0.941254 2.16367)
(0.153109 -0.949838 2.16663)
(0.0120816 -0.962021 2.16663)
(-0.0115311 -0.962029 2.16663)
(0.0356872 -0.961434 2.16663)
(0.0592713 -0.960268 2.16663)
(0.0828198 -0.958525 2.16663)
(0.106319 -0.956204 2.16663)
(0.129753 -0.953309 2.16663)
(0.0119725 -0.953327 2.16367)
(-0.011427 -0.953335 2.16367)
(0.0353647 -0.952745 2.16367)
(0.0587357 -0.95159 2.16367)
(0.0820714 -0.949862 2.16367)
(0.105358 -0.947563 2.16367)
(0.128581 -0.944694 2.16367)
(-0.0348195 -0.952768 2.16367)
(-0.035137 -0.961457 2.16663)
(-0.176003 -0.945769 2.16663)
(-0.199265 -0.941097 2.16663)
(-0.152664 -0.94985 2.16663)
(-0.129258 -0.953343 2.16663)
(-0.105792 -0.956249 2.16663)
(-0.082277 -0.958568 2.16663)
(-0.0587223 -0.960304 2.16663)
(-0.174342 -0.937273 2.16367)
(-0.197352 -0.932674 2.16367)
(-0.151244 -0.941296 2.16367)
(-0.128068 -0.944743 2.16367)
(-0.104827 -0.947613 2.16367)
(-0.081531 -0.949908 2.16367)
(-0.0581913 -0.951626 2.16367)
(-0.220262 -0.927498 2.16367)
(-0.22244 -0.935834 2.16663)
(-0.358483 -0.892334 2.16663)
(-0.380399 -0.883235 2.16663)
(-0.336304 -0.90093 2.16663)
(-0.31389 -0.909008 2.16663)
(-0.291269 -0.916552 2.16663)
(-0.268468 -0.923548 2.16663)
(-0.245516 -0.92998 2.16663)
(-0.354627 -0.884716 2.16367)
(-0.376305 -0.875728 2.16367)
(-0.332708 -0.893191 2.16367)
(-0.31057 -0.901142 2.16367)
(-0.288235 -0.908559 2.16367)
(-0.265724 -0.915431 2.16367)
(-0.243059 -0.921747 2.16367)
(-0.39772 -0.866237 2.16367)
(-0.402025 -0.873647 2.16663)
(-0.525025 -0.80617 2.16663)
(-0.544369 -0.79327 2.16663)
(-0.505346 -0.818598 2.16663)
(-0.485335 -0.830553 2.16663)
(-0.464994 -0.842036 2.16663)
(-0.444327 -0.853046 2.16663)
(-0.423337 -0.863583 2.16663)
(-0.520033 -0.799063 2.16367)
(-0.539323 -0.786193 2.16367)
(-0.500418 -0.81146 2.16367)
(-0.480486 -0.823381 2.16367)
(-0.460244 -0.834822 2.16367)
(-0.439698 -0.845781 2.16367)
(-0.418854 -0.856253 2.16367)
(-0.558283 -0.772852 2.16367)
(-0.563376 -0.779899 2.16663)
(-0.670232 -0.689861 2.16663)
(-0.686832 -0.673244 2.16663)
(-0.653285 -0.706022 2.16663)
(-0.635991 -0.721725 2.16663)
(-0.618352 -0.736966 2.16663)
(-0.600369 -0.751744 2.16663)
(-0.582043 -0.766056 2.16663)
(-0.664784 -0.683187 2.16367)
(-0.681276 -0.666689 2.16367)
(-0.647924 -0.699249 2.16367)
(-0.630701 -0.714872 2.16367)
(-0.61312 -0.730048 2.16367)
(-0.595187 -0.744774 2.16367)
(-0.576906 -0.759044 2.16367)
(-0.697395 -0.649763 2.16367)
(-0.703083 -0.656174 2.16663)
(-0.792416 -0.545067 2.16663)
(-0.805733 -0.5253 2.16663)
(-0.778612 -0.564513 2.16663)
(-0.764343 -0.583617 2.16663)
(-0.749633 -0.602356 2.16663)
(-0.734505 -0.62071 2.16663)
(-0.71898 -0.638656 2.16663)
(-0.785569 -0.539913 2.16367)
(-0.798687 -0.520382 2.16367)
(-0.771973 -0.559124 2.16367)
(-0.757914 -0.577997 2.16367)
(-0.743411 -0.596514 2.16367)
(-0.728478 -0.614659 2.16367)
(-0.713134 -0.632414 2.16367)
(-0.811309 -0.500547 2.16367)
(-0.81854 -0.505233 2.16663)
(-0.884162 -0.379316 2.16663)
(-0.893211 -0.357499 2.16663)
(-0.874571 -0.40091 2.16663)
(-0.864439 -0.422274 2.16663)
(-0.853769 -0.443398 2.16663)
(-0.842561 -0.464272 2.16663)
(-0.830818 -0.484887 2.16663)
(-0.876174 -0.375886 2.16367)
(-0.885139 -0.354268 2.16367)
(-0.866676 -0.397281 2.16367)
(-0.856648 -0.418443 2.16367)
(-0.846094 -0.439361 2.16367)
(-0.835017 -0.460025 2.16367)
(-0.823421 -0.480424 2.16367)
(-0.893568 -0.332439 2.16367)
(-0.901717 -0.335471 2.16663)
(-0.941179 -0.19953 2.16663)
(-0.945794 -0.176372 2.16663)
(-0.935998 -0.222567 2.16663)
(-0.930254 -0.245471 2.16663)
(-0.92395 -0.268227 2.16663)
(-0.91709 -0.290821 2.16663)
(-0.909678 -0.313241 2.16663)
(-0.932674 -0.197727 2.16367)
(-0.937247 -0.174779 2.16367)
(-0.927539 -0.220556 2.16367)
(-0.921847 -0.243253 2.16367)
(-0.9156 -0.265803 2.16367)
(-0.908802 -0.288193 2.16367)
(-0.901457 -0.31041 2.16367)
(-0.941254 -0.151725 2.16367)
(-0.949838 -0.153109 2.16663)
(-0.962021 -0.012081 2.16663)
(-0.962029 0.0115317 2.16663)
(-0.961434 -0.0356866 2.16663)
(-0.960268 -0.0592707 2.16663)
(-0.958525 -0.0828192 2.16663)
(-0.956205 -0.106318 2.16663)
(-0.953309 -0.129752 2.16663)
(-0.953327 -0.0119718 2.16367)
(-0.953335 0.0114276 2.16367)
(-0.952745 -0.035364 2.16367)
(-0.95159 -0.0587351 2.16367)
(-0.949862 -0.0820708 2.16367)
(-0.947563 -0.105357 2.16367)
(-0.944694 -0.12858 2.16367)
(-0.952768 0.03482 2.16367)
(-0.961457 0.0351377 2.16663)
(-0.945893 0.175832 2.16663)
(-0.941294 0.198993 2.16663)
(-0.949922 0.152566 2.16663)
(-0.95338 0.129207 2.16663)
(-0.956264 0.105771 2.16663)
(-0.958573 0.0822712 2.16663)
(-0.960305 0.058722 2.16663)
(-0.937345 0.174243 2.16367)
(-0.932788 0.197194 2.16367)
(-0.941337 0.151187 2.16367)
(-0.944764 0.128039 2.16367)
(-0.947622 0.104815 2.16367)
(-0.94991 0.0815279 2.16367)
(-0.951626 0.0581914 2.16367)
(-0.927668 0.220027 2.16367)
(-0.936128 0.222033 2.16663)
(-0.893415 0.356988 2.16663)
(-0.884386 0.378806 2.16663)
(-0.901905 0.334954 2.16663)
(-0.909854 0.312719 2.16663)
(-0.917255 0.290296 2.16663)
(-0.924104 0.267699 2.16663)
(-0.930396 0.24494 2.16663)
(-0.885341 0.353762 2.16367)
(-0.876393 0.375383 2.16367)
(-0.893755 0.331927 2.16367)
(-0.901631 0.309893 2.16367)
(-0.908965 0.287673 2.16367)
(-0.915752 0.265279 2.16367)
(-0.921988 0.242726 2.16367)
(-0.866918 0.396778 2.16367)
(-0.874824 0.400396 2.16663)
(-0.806603 0.524425 2.16663)
(-0.793491 0.544063 2.16663)
(-0.819229 0.504472 2.16663)
(-0.831362 0.484214 2.16663)
(-0.842996 0.463666 2.16663)
(-0.854122 0.442838 2.16663)
(-0.864734 0.421745 2.16663)
(-0.799314 0.519686 2.16367)
(-0.78632 0.539146 2.16367)
(-0.811826 0.499913 2.16367)
(-0.823849 0.479838 2.16367)
(-0.835377 0.459476 2.16367)
(-0.846403 0.438836 2.16367)
(-0.856919 0.417933 2.16367)
(-0.772853 0.558282 2.16367)
(-0.779901 0.563373 2.16663)
(-0.688794 0.671709 2.16663)
(-0.672103 0.688412 2.16663)
(-0.70507 0.654602 2.16663)
(-0.720922 0.637101 2.16663)
(-0.736341 0.619217 2.16663)
(-0.751316 0.600961 2.16663)
(-0.76584 0.582342 2.16663)
(-0.682569 0.665639 2.16367)
(-0.666029 0.682191 2.16367)
(-0.698698 0.648687 2.16367)
(-0.714407 0.631344 2.16367)
(-0.729686 0.613621 2.16367)
(-0.744527 0.59553 2.16367)
(-0.758919 0.57708 2.16367)
(-0.649087 0.698331 2.16367)
(-0.655006 0.704699 2.16663)
(-0.544515 0.79318 2.16663)
(-0.524886 0.806305 2.16663)
(-0.563816 0.779577 2.16663)
(-0.582778 0.765505 2.16663)
(-0.601389 0.750972 2.16663)
(-0.619638 0.735988 2.16663)
(-0.637514 0.720561 2.16663)
(-0.539594 0.786011 2.16367)
(-0.520142 0.799018 2.16367)
(-0.55872 0.772532 2.16367)
(-0.577511 0.758587 2.16367)
(-0.595954 0.744186 2.16367)
(-0.614038 0.729337 2.16367)
(-0.631753 0.714049 2.16367)
(-0.500377 0.811543 2.16367)
(-0.504941 0.818944 2.16663)
(-0.37931 0.884169 2.16663)
(-0.357498 0.893212 2.16663)
(-0.400894 0.874592 2.16663)
(-0.422237 0.86449 2.16663)
(-0.443326 0.853868 2.16663)
(-0.464148 0.842732 2.16663)
(-0.484691 0.831089 2.16663)
(-0.375883 0.876178 2.16367)
(-0.354267 0.88514 2.16367)
(-0.397271 0.866689 2.16367)
(-0.418421 0.856678 2.16367)
(-0.43932 0.846151 2.16367)
(-0.459953 0.835116 2.16367)
(-0.48031 0.823578 2.16367)
(-0.332439 0.893568 2.16367)
(-0.335471 0.901717 2.16663)
(-0.199529 0.941179 2.16663)
(-0.176372 0.945794 2.16663)
(-0.222567 0.935998 2.16663)
(-0.24547 0.930254 2.16663)
(-0.268226 0.92395 2.16663)
(-0.290821 0.91709 2.16663)
(-0.31324 0.909678 2.16663)
(-0.197726 0.932674 2.16367)
(-0.174778 0.937247 2.16367)
(-0.220555 0.927539 2.16367)
(-0.243252 0.921847 2.16367)
(-0.265802 0.9156 2.16367)
(-0.288193 0.908802 2.16367)
(-0.310409 0.901457 2.16367)
(-0.151724 0.941254 2.16367)
(-0.153108 0.949838 2.16663)
(-0.0120802 0.962021 2.16663)
(0.0115324 0.962029 2.16663)
(-0.035686 0.961434 2.16663)
(-0.0592702 0.960268 2.16663)
(-0.0828186 0.958525 2.16663)
(-0.106317 0.956205 2.16663)
(-0.129752 0.953309 2.16663)
(-0.0119712 0.953327 2.16367)
(0.0114282 0.953335 2.16367)
(-0.0353635 0.952745 2.16367)
(-0.0587345 0.95159 2.16367)
(-0.0820701 0.949862 2.16367)
(-0.105356 0.947563 2.16367)
(-0.128579 0.944694 2.16367)
(0.0348206 0.952768 2.16367)
(0.0351382 0.961457 2.16663)
(0.175833 0.945893 2.16663)
(0.198993 0.941294 2.16663)
(0.152566 0.949922 2.16663)
(0.129208 0.95338 2.16663)
(0.105772 0.956264 2.16663)
(0.0822719 0.958573 2.16663)
(0.0587227 0.960305 2.16663)
(0.174244 0.937345 2.16367)
(0.197195 0.932787 2.16367)
(0.151187 0.941337 2.16367)
(0.12804 0.944764 2.16367)
(0.104816 0.947622 2.16367)
(0.0815285 0.94991 2.16367)
(0.058192 0.951626 2.16367)
(0.220027 0.927668 2.16367)
(0.222034 0.936128 2.16663)
(0.356988 0.893414 2.16663)
(0.378807 0.884386 2.16663)
(0.334955 0.901905 2.16663)
(0.31272 0.909853 2.16663)
(0.290297 0.917254 2.16663)
(0.267699 0.924103 2.16663)
(0.24494 0.930396 2.16663)
(0.353762 0.88534 2.16367)
(0.375383 0.876393 2.16367)
(0.331928 0.893754 2.16367)
(0.309894 0.901631 2.16367)
(0.287673 0.908965 2.16367)
(0.26528 0.915752 2.16367)
(0.242727 0.921988 2.16367)
(0.396778 0.866918 2.16367)
(0.400397 0.874824 2.16663)
(0.524425 0.806603 2.16663)
(0.544062 0.793491 2.16663)
(0.504471 0.819229 2.16663)
(0.484214 0.831362 2.16663)
(0.463666 0.842996 2.16663)
(0.442838 0.854122 2.16663)
(0.421745 0.864733 2.16663)
(0.519685 0.799313 2.16367)
(0.539145 0.78632 2.16367)
(0.499912 0.811825 2.16367)
(0.479838 0.823849 2.16367)
(0.459475 0.835377 2.16367)
(0.438836 0.846403 2.16367)
(0.417933 0.856919 2.16367)
(0.43401 0.889975 0.201827)
(0.455554 0.878772 0.201827)
(0.47684 0.867033 0.201827)
(0.497935 0.85492 0.201827)
(0.478594 0.870148 0.20702)
(0.4998 0.858122 0.20702)
(0.518879 0.842547 0.201827)
(0.520723 0.845611 0.20702)
(0.539592 0.829825 0.201827)
(0.541343 0.832611 0.20702)
(0.559966 0.816613 0.201827)
(0.412138 0.900476 0.201827)
(0.579892 0.80277 0.201827)
(0.252045 0.957545 0.201827)
(0.275361 0.950761 0.201827)
(0.298528 0.943399 0.201827)
(0.321581 0.935635 0.201827)
(0.299641 0.946797 0.20702)
(0.322786 0.939139 0.20702)
(0.344537 0.927586 0.201827)
(0.345748 0.93095 0.20702)
(0.367334 0.919149 0.201827)
(0.368508 0.922223 0.20702)
(0.389894 0.910166 0.201827)
(0.228545 0.963578 0.201827)
(0.0603943 0.988318 0.201827)
(0.084586 0.986212 0.201827)
(0.108744 0.983512 0.201827)
(0.132869 0.980394 0.201827)
(0.109173 0.987062 0.20702)
(0.133366 0.984066 0.20702)
(0.156953 0.976978 0.201827)
(0.157485 0.980514 0.20702)
(0.180959 0.973152 0.201827)
(0.18151 0.976395 0.20702)
(0.204838 0.968742 0.201827)
(0.0361684 0.98965 0.201827)
(-0.133577 0.98111 0.201827)
(-0.10944 0.983765 0.201827)
(-0.0852194 0.985829 0.201827)
(-0.0609496 0.987478 0.201827)
(-0.085491 0.989394 0.20702)
(-0.0611779 0.991176 0.20702)
(-0.0366614 0.988826 0.201827)
(-0.0368302 0.992398 0.20702)
(-0.0123708 0.989756 0.201827)
(-0.0124628 0.993045 0.20702)
(0.0119101 0.99009 0.201827)
(-0.157598 0.97769 0.201827)
(-0.322416 0.936198 0.201827)
(-0.29926 0.943511 0.201827)
(-0.275908 0.950261 0.201827)
(-0.252426 0.956613 0.201827)
(-0.27687 0.953705 0.20702)
(-0.253371 0.960195 0.20702)
(-0.228867 0.962674 0.201827)
(-0.22973 0.966144 0.20702)
(-0.205225 0.968325 0.201827)
(-0.205957 0.971532 0.20702)
(-0.181476 0.973389 0.201827)
(-0.345307 0.928158 0.201827)
(-0.498864 0.855309 0.201827)
(-0.47758 0.866999 0.201827)
(-0.455993 0.878175 0.201827)
(-0.434202 0.888986 0.201827)
(-0.457608 0.881365 0.20702)
(-0.435828 0.892315 0.20702)
(-0.412278 0.899526 0.201827)
(-0.413801 0.902762 0.20702)
(-0.390192 0.909681 0.201827)
(-0.391536 0.912684 0.20702)
(-0.367888 0.919281 0.201827)
(-0.519747 0.842957 0.201827)
(-0.656141 0.741551 0.201827)
(-0.637546 0.757169 0.201827)
(-0.618555 0.772341 0.201827)
(-0.599291 0.787196 0.201827)
(-0.620761 0.775155 0.20702)
(-0.601535 0.790144 0.20702)
(-0.579845 0.801811 0.201827)
(-0.58197 0.804687 0.20702)
(-0.560165 0.816079 0.201827)
(-0.562069 0.818762 0.20702)
(-0.540162 0.829846 0.201827)
(-0.674213 0.725363 0.201827)
(-0.788203 0.599296 0.201827)
(-0.773013 0.618241 0.201827)
(-0.757346 0.636827 0.201827)
(-0.74135 0.655154 0.201827)
(-0.760059 0.639156 0.20702)
(-0.744127 0.657608 0.20702)
(-0.725129 0.673282 0.201827)
(-0.727774 0.675688 0.20702)
(-0.708611 0.691115 0.201827)
(-0.711002 0.693376 0.20702)
(-0.691678 0.708521 0.201827)
(-0.80277 0.579893 0.201827)
(-0.889975 0.434009 0.201827)
(-0.878772 0.455554 0.201827)
(-0.867033 0.47684 0.201827)
(-0.85492 0.497935 0.201827)
(-0.870148 0.478594 0.20702)
(-0.858121 0.4998 0.20702)
(-0.842547 0.518879 0.201827)
(-0.84561 0.520723 0.20702)
(-0.829825 0.539593 0.201827)
(-0.832611 0.541343 0.20702)
(-0.816613 0.559967 0.201827)
(-0.900476 0.412137 0.201827)
(-0.957545 0.252044 0.201827)
(-0.950761 0.275361 0.201827)
(-0.943399 0.298528 0.201827)
(-0.935635 0.321581 0.201827)
(-0.946797 0.299641 0.20702)
(-0.939139 0.322785 0.20702)
(-0.927586 0.344536 0.201827)
(-0.93095 0.345747 0.20702)
(-0.91915 0.367334 0.201827)
(-0.922223 0.368507 0.20702)
(-0.910166 0.389894 0.201827)
(-0.963578 0.228544 0.201827)
(-0.988318 0.0603937 0.201827)
(-0.986213 0.0845852 0.201827)
(-0.983512 0.108743 0.201827)
(-0.980394 0.132868 0.201827)
(-0.987062 0.109172 0.20702)
(-0.984066 0.133366 0.20702)
(-0.976979 0.156953 0.201827)
(-0.980514 0.157484 0.20702)
(-0.973152 0.180958 0.201827)
(-0.976395 0.18151 0.20702)
(-0.968742 0.204838 0.201827)
(-0.98965 0.0361677 0.201827)
(-0.98111 -0.133578 0.201827)
(-0.983765 -0.109441 0.201827)
(-0.985829 -0.0852199 0.201827)
(-0.987478 -0.0609503 0.201827)
(-0.989394 -0.0854918 0.20702)
(-0.991176 -0.0611785 0.20702)
(-0.988826 -0.036662 0.201827)
(-0.992398 -0.0368308 0.20702)
(-0.989756 -0.0123714 0.201827)
(-0.993045 -0.0124634 0.20702)
(-0.99009 0.0119094 0.201827)
(-0.97769 -0.157598 0.201827)
(-0.936198 -0.322417 0.201827)
(-0.943511 -0.299261 0.201827)
(-0.950261 -0.275908 0.201827)
(-0.956613 -0.252426 0.201827)
(-0.953705 -0.27687 0.20702)
(-0.960195 -0.253372 0.20702)
(-0.962674 -0.228868 0.201827)
(-0.966144 -0.22973 0.20702)
(-0.968325 -0.205226 0.201827)
(-0.971532 -0.205957 0.20702)
(-0.973389 -0.181476 0.201827)
(-0.928158 -0.345308 0.201827)
(-0.855309 -0.498865 0.201827)
(-0.866999 -0.47758 0.201827)
(-0.878175 -0.455994 0.201827)
(-0.888986 -0.434202 0.201827)
(-0.881365 -0.457609 0.20702)
(-0.892315 -0.435828 0.20702)
(-0.899526 -0.412279 0.201827)
(-0.902761 -0.413802 0.20702)
(-0.909681 -0.390193 0.201827)
(-0.912684 -0.391537 0.20702)
(-0.919281 -0.367888 0.201827)
(-0.842957 -0.519748 0.201827)
(-0.741551 -0.656142 0.201827)
(-0.757168 -0.637547 0.201827)
(-0.772341 -0.618555 0.201827)
(-0.787195 -0.599292 0.201827)
(-0.775154 -0.620762 0.20702)
(-0.790143 -0.601536 0.20702)
(-0.80181 -0.579846 0.201827)
(-0.804686 -0.581971 0.20702)
(-0.816079 -0.560166 0.201827)
(-0.818762 -0.562069 0.20702)
(-0.829846 -0.540162 0.201827)
(-0.725362 -0.674214 0.201827)
(-0.599295 -0.788203 0.201827)
(-0.61824 -0.773013 0.201827)
(-0.636827 -0.757346 0.201827)
(-0.655154 -0.741351 0.201827)
(-0.639155 -0.760059 0.20702)
(-0.657607 -0.744127 0.20702)
(-0.673281 -0.72513 0.201827)
(-0.675688 -0.727775 0.20702)
(-0.691115 -0.708611 0.201827)
(-0.693376 -0.711002 0.20702)
(-0.70852 -0.691678 0.201827)
(-0.579892 -0.80277 0.201827)
(-0.434009 -0.889975 0.201827)
(-0.455553 -0.878772 0.201827)
(-0.476839 -0.867033 0.201827)
(-0.497934 -0.85492 0.201827)
(-0.478594 -0.870148 0.20702)
(-0.499799 -0.858122 0.20702)
(-0.518879 -0.842547 0.201827)
(-0.520723 -0.845611 0.20702)
(-0.539592 -0.829825 0.201827)
(-0.541343 -0.832611 0.20702)
(-0.559966 -0.816613 0.201827)
(-0.412137 -0.900476 0.201827)
(-0.252044 -0.957545 0.201827)
(-0.27536 -0.950761 0.201827)
(-0.298527 -0.9434 0.201827)
(-0.32158 -0.935635 0.201827)
(-0.29964 -0.946797 0.20702)
(-0.322784 -0.939139 0.20702)
(-0.344536 -0.927586 0.201827)
(-0.345746 -0.930951 0.20702)
(-0.367333 -0.91915 0.201827)
(-0.368507 -0.922224 0.20702)
(-0.389893 -0.910166 0.201827)
(-0.228543 -0.963578 0.201827)
(-0.0603931 -0.988318 0.201827)
(-0.0845847 -0.986213 0.201827)
(-0.108743 -0.983512 0.201827)
(-0.132868 -0.980394 0.201827)
(-0.109172 -0.987062 0.20702)
(-0.133365 -0.984066 0.20702)
(-0.156952 -0.976979 0.201827)
(-0.157484 -0.980515 0.20702)
(-0.180958 -0.973152 0.201827)
(-0.181509 -0.976395 0.20702)
(-0.204837 -0.968742 0.201827)
(-0.0361672 -0.98965 0.201827)
(0.133579 -0.981109 0.201827)
(0.109441 -0.983764 0.201827)
(0.0852206 -0.985829 0.201827)
(0.0609509 -0.987478 0.201827)
(0.0854924 -0.989394 0.20702)
(0.0611793 -0.991176 0.20702)
(0.0366627 -0.988826 0.201827)
(0.0368314 -0.992398 0.20702)
(0.0123721 -0.989756 0.201827)
(0.012464 -0.993045 0.20702)
(-0.0119087 -0.99009 0.201827)
(0.157599 -0.97769 0.201827)
(0.322417 -0.936198 0.201827)
(0.299261 -0.943511 0.201827)
(0.275909 -0.950261 0.201827)
(0.252427 -0.956612 0.201827)
(0.276871 -0.953705 0.20702)
(0.253372 -0.960195 0.20702)
(0.228869 -0.962673 0.201827)
(0.229731 -0.966144 0.20702)
(0.205226 -0.968324 0.201827)
(0.205958 -0.971532 0.20702)
(0.181477 -0.973389 0.201827)
(0.345309 -0.928158 0.201827)
(0.498865 -0.855309 0.201827)
(0.477581 -0.866998 0.201827)
(0.455994 -0.878175 0.201827)
(0.434203 -0.888985 0.201827)
(0.45761 -0.881364 0.20702)
(0.435829 -0.892315 0.20702)
(0.41228 -0.899526 0.201827)
(0.413802 -0.902761 0.20702)
(0.390194 -0.909681 0.201827)
(0.391537 -0.912684 0.20702)
(0.367889 -0.919281 0.201827)
(0.519748 -0.842957 0.201827)
(0.656142 -0.74155 0.201827)
(0.637547 -0.757168 0.201827)
(0.618556 -0.772341 0.201827)
(0.599292 -0.787195 0.201827)
(0.620762 -0.775154 0.20702)
(0.601537 -0.790143 0.20702)
(0.579846 -0.80181 0.201827)
(0.581971 -0.804686 0.20702)
(0.560166 -0.816078 0.201827)
(0.56207 -0.818762 0.20702)
(0.540163 -0.829846 0.201827)
(0.674214 -0.725362 0.201827)
(0.788204 -0.599295 0.201827)
(0.773013 -0.61824 0.201827)
(0.757347 -0.636826 0.201827)
(0.741351 -0.655153 0.201827)
(0.76006 -0.639155 0.20702)
(0.744127 -0.657607 0.20702)
(0.72513 -0.673281 0.201827)
(0.727775 -0.675687 0.20702)
(0.708612 -0.691115 0.201827)
(0.711002 -0.693375 0.20702)
(0.691678 -0.70852 0.201827)
(0.80277 -0.579892 0.201827)
(0.889975 -0.434009 0.201827)
(0.878773 -0.455553 0.201827)
(0.867033 -0.476839 0.201827)
(0.85492 -0.497934 0.201827)
(0.870148 -0.478594 0.20702)
(0.858122 -0.499799 0.20702)
(0.842548 -0.518878 0.201827)
(0.845611 -0.520722 0.20702)
(0.829826 -0.539592 0.201827)
(0.832611 -0.541343 0.20702)
(0.816613 -0.559966 0.201827)
(0.900477 -0.412136 0.201827)
(0.957545 -0.252044 0.201827)
(0.950761 -0.27536 0.201827)
(0.9434 -0.298527 0.201827)
(0.935635 -0.32158 0.201827)
(0.946797 -0.29964 0.20702)
(0.939139 -0.322784 0.20702)
(0.927586 -0.344535 0.201827)
(0.930951 -0.345746 0.20702)
(0.91915 -0.367333 0.201827)
(0.922224 -0.368506 0.20702)
(0.910166 -0.389893 0.201827)
(0.963578 -0.228543 0.201827)
(0.988318 -0.0603929 0.201827)
(0.986213 -0.0845846 0.201827)
(0.983512 -0.108743 0.201827)
(0.980394 -0.132867 0.201827)
(0.987062 -0.109172 0.20702)
(0.984066 -0.133365 0.20702)
(0.976979 -0.156952 0.201827)
(0.980515 -0.157483 0.20702)
(0.973152 -0.180957 0.201827)
(0.976395 -0.181509 0.20702)
(0.968742 -0.204837 0.201827)
(0.98965 -0.0361672 0.201827)
(0.981109 0.133579 0.201827)
(0.983764 0.109441 0.201827)
(0.985829 0.0852206 0.201827)
(0.987478 0.0609509 0.201827)
(0.989394 0.0854924 0.20702)
(0.991176 0.0611793 0.20702)
(0.988826 0.0366627 0.201827)
(0.992398 0.0368314 0.20702)
(0.989756 0.0123721 0.201827)
(0.993045 0.012464 0.20702)
(0.99009 -0.0119087 0.201827)
(0.97769 0.157599 0.201827)
(0.936198 0.322417 0.201827)
(0.943511 0.299261 0.201827)
(0.950261 0.275909 0.201827)
(0.956613 0.252427 0.201827)
(0.953705 0.276871 0.20702)
(0.960195 0.253372 0.20702)
(0.962673 0.228869 0.201827)
(0.966144 0.229731 0.20702)
(0.968324 0.205226 0.201827)
(0.971532 0.205958 0.20702)
(0.973389 0.181477 0.201827)
(0.928158 0.345309 0.201827)
(0.855309 0.498865 0.201827)
(0.866999 0.477581 0.201827)
(0.878175 0.455994 0.201827)
(0.888985 0.434203 0.201827)
(0.881364 0.457609 0.20702)
(0.892315 0.435829 0.20702)
(0.899526 0.412279 0.201827)
(0.902761 0.413802 0.20702)
(0.909681 0.390193 0.201827)
(0.912684 0.391537 0.20702)
(0.919281 0.367889 0.201827)
(0.842957 0.519748 0.201827)
(0.74155 0.656142 0.201827)
(0.757168 0.637547 0.201827)
(0.772341 0.618555 0.201827)
(0.787195 0.599292 0.201827)
(0.775154 0.620762 0.20702)
(0.790143 0.601536 0.20702)
(0.80181 0.579846 0.201827)
(0.804686 0.581971 0.20702)
(0.816079 0.560166 0.201827)
(0.818762 0.56207 0.20702)
(0.829846 0.540163 0.201827)
(0.725362 0.674214 0.201827)
(0.599295 0.788204 0.201827)
(0.61824 0.773013 0.201827)
(0.636826 0.757346 0.201827)
(0.655153 0.741351 0.201827)
(0.639155 0.760059 0.20702)
(0.657607 0.744127 0.20702)
(0.673281 0.72513 0.201827)
(0.675687 0.727775 0.20702)
(0.691115 0.708611 0.201827)
(0.693375 0.711002 0.20702)
(0.70852 0.691678 0.201827)
(-0.73164 -0.672325 1.72635)
(-0.732022 -0.675029 1.73583)
(-0.731179 -0.678105 1.73165)
(-0.73264 -0.680243 1.74015)
(-0.731498 -0.67808 1.74633)
(-0.716261 -0.697974 1.81603)
(-0.71041 -0.704307 1.83116)
(-0.721094 -0.692738 1.80065)
(-0.724994 -0.688344 1.78568)
(-0.728006 -0.684576 1.77145)
(-0.730162 -0.681223 1.75825)
)

// edges

877
(
(4 5)
(6 4)
(7 6)
(8 7)
(9 8)
(10 9)
(11 12)
(13 11)
(14 13)
(15 14)
(16 15)
(17 16)
(18 10)
(19 17)
(20 12)
(21 5)
(22 23)
(24 22)
(25 24)
(26 25)
(27 26)
(28 27)
(29 30)
(31 29)
(32 31)
(33 32)
(34 33)
(35 34)
(21 28)
(20 35)
(36 30)
(37 23)
(38 39)
(40 38)
(41 40)
(42 41)
(43 42)
(44 43)
(45 46)
(47 45)
(48 47)
(49 48)
(50 49)
(51 50)
(37 44)
(36 51)
(52 46)
(53 39)
(54 55)
(56 54)
(57 56)
(58 57)
(59 58)
(60 59)
(61 62)
(63 61)
(64 63)
(65 64)
(66 65)
(67 66)
(53 60)
(52 67)
(68 62)
(69 55)
(70 71)
(72 70)
(73 72)
(74 73)
(75 74)
(76 75)
(77 78)
(79 77)
(80 79)
(81 80)
(82 81)
(83 82)
(69 76)
(68 83)
(84 78)
(85 71)
(86 87)
(88 86)
(89 88)
(90 89)
(91 90)
(92 91)
(93 94)
(95 93)
(96 95)
(97 96)
(98 97)
(99 98)
(85 92)
(84 99)
(100 94)
(101 87)
(102 103)
(104 102)
(105 104)
(106 105)
(107 106)
(108 107)
(109 110)
(111 109)
(112 111)
(113 112)
(114 113)
(115 114)
(101 108)
(100 115)
(116 110)
(117 103)
(118 119)
(120 118)
(121 120)
(122 121)
(123 122)
(124 123)
(125 126)
(127 125)
(128 127)
(129 128)
(130 129)
(131 130)
(117 124)
(116 131)
(132 126)
(133 119)
(134 135)
(136 134)
(137 136)
(138 137)
(139 138)
(140 139)
(141 142)
(143 141)
(144 143)
(145 144)
(146 145)
(147 146)
(133 140)
(132 147)
(148 142)
(149 135)
(150 151)
(152 150)
(153 152)
(154 153)
(155 154)
(156 155)
(157 158)
(159 157)
(160 159)
(161 160)
(162 161)
(163 162)
(149 156)
(148 163)
(164 158)
(165 151)
(166 167)
(168 166)
(169 168)
(170 169)
(171 170)
(172 171)
(173 174)
(175 173)
(176 175)
(177 176)
(178 177)
(179 178)
(165 172)
(164 179)
(180 174)
(181 167)
(182 183)
(184 182)
(185 184)
(186 185)
(187 186)
(188 187)
(189 190)
(191 189)
(192 191)
(193 192)
(194 193)
(195 194)
(181 188)
(180 195)
(196 190)
(197 183)
(198 199)
(200 198)
(201 200)
(202 201)
(203 202)
(204 203)
(205 206)
(207 205)
(208 207)
(209 208)
(210 209)
(211 210)
(197 204)
(196 211)
(212 206)
(213 199)
(214 215)
(216 214)
(217 216)
(218 217)
(219 218)
(220 219)
(221 222)
(223 221)
(224 223)
(225 224)
(226 225)
(227 226)
(213 220)
(212 227)
(228 222)
(229 215)
(230 231)
(232 230)
(233 232)
(234 233)
(235 234)
(236 235)
(237 238)
(239 237)
(240 239)
(241 240)
(242 241)
(243 242)
(229 236)
(228 243)
(244 238)
(245 231)
(246 247)
(248 246)
(249 248)
(250 249)
(251 250)
(252 251)
(253 254)
(255 253)
(256 255)
(257 256)
(258 257)
(259 258)
(245 252)
(244 259)
(260 254)
(261 247)
(262 263)
(264 262)
(265 264)
(266 265)
(267 266)
(268 267)
(269 270)
(271 269)
(272 271)
(273 272)
(274 273)
(275 274)
(261 268)
(260 275)
(276 270)
(277 263)
(278 279)
(280 278)
(281 280)
(282 281)
(283 282)
(284 283)
(285 286)
(287 285)
(288 287)
(289 288)
(290 289)
(291 290)
(277 284)
(276 291)
(292 286)
(293 279)
(294 295)
(296 294)
(297 296)