FoamFile { version 2.0; format ascii; class dictionary; object fvSolution; }
solvers {
    p { solver PCG; preconditioner DIC; tolerance 1e-06; relTol 0.01; }
    U { solver PBiCGStab; preconditioner DILU; tolerance 1e-05; relTol 0.1; }
    k { solver PBiCGStab; preconditioner DILU; tolerance 1e-05; relTol 0.1; }
    epsilon { solver PBiCGStab; preconditioner DILU; tolerance 1e-05; relTol 0.1; }
}
SIMPLE {
    nNonOrthogonalCorrectors 0;
    consistent yes;
    residualControl { p 1e-4; U 1e-4; }
}
relaxationFactors {
    fields { p 0.3; }
    equations { U 0.7; k 0.7; epsilon 0.7; }
}
