FoamFile { version 2.0; format ascii; class dictionary; object surfaceFeaturesDict; }
surfaces ( "car.stl" );
includedAngle 150;
