FoamFile { version 2.0; format ascii; class dictionary; object surfaceFeatureExtractDict; }
car.stl {
    extractionMethod surfaceExtract;
    includedAngle 150;
    writeObj yes;
}
