/*--------------------------------*- C++ -*----------------------------------*\
  =========                 |
  \\      /  F ield         | OpenFOAM: The Open Source CFD Toolbox
   \\    /   O peration     | Website:  https://openfoam.org
    \\  /    A nd           | Version:  11
     \\/     M anipulation  |
\*---------------------------------------------------------------------------*/
FoamFile
{
    format      ascii;
    class       polyBoundaryMesh;
    location    "constant/polyMesh";
    object      boundary;
}
// * * * * * * * * * * * * * * * * * * * * * * * * * * * * * * * * * * * * * //

5
(
    inlet
    {
        type            patch;
        nFaces          840;
        startFace       373179;
    }
    outlet
    {
        type            patch;
        nFaces          840;
        startFace       374019;
    }
    walls
    {
        type wall;
        nFaces          4160;
        startFace       374859;
    }
    ground
    {
        type            wall;
        inGroups        List<word> 1(wall);
        nFaces          0;
        startFace       379019;
    }
    car
    {
        type            wall;
        inGroups        List<word> 1(wall);
        nFaces          58765;
        startFace       379019;
    }
)

// ************************************************************************* //
